<routes>
            <vType accel="1.0" decel="4.5" id="standard_car" length="5.0" minGap="2.5" maxSpeed="25" sigma="0.5" />
            <route id="W_N" edges="W2TL TL2N"/>
            <route id="W_E" edges="W2TL TL2E"/>
            <route id="W_S" edges="W2TL TL2S"/>
            <route id="N_W" edges="N2TL TL2W"/>
            <route id="N_E" edges="N2TL TL2E"/>
            <route id="N_S" edges="N2TL TL2S"/>
            <route id="E_W" edges="E2TL TL2W"/>
            <route id="E_N" edges="E2TL TL2N"/>
            <route id="E_S" edges="E2TL TL2S"/>
            <route id="S_W" edges="S2TL TL2W"/>
            <route id="S_N" edges="S2TL TL2N"/>
            <route id="S_E" edges="S2TL TL2E"/>
<vehicle id="N_S_0" type="standard_car" route="N_S" depart="130.0" departLane="random" departSpeed="10" />
<vehicle id="N_S_1" type="standard_car" route="N_S" depart="50.0" departLane="random" departSpeed="10" />
<vehicle id="S_N_2" type="standard_car" route="S_N" depart="94.0" departLane="random" departSpeed="10" />
<vehicle id="W_S_3" type="standard_car" route="W_S" depart="100.0" departLane="random" departSpeed="10" />
<vehicle id="N_S_4" type="standard_car" route="N_S" depart="219.0" departLane="random" departSpeed="10" />
<vehicle id="W_E_5" type="standard_car" route="W_E" depart="224.0" departLane="random" departSpeed="10" />
<vehicle id="E_N_6" type="standard_car" route="E_N" depart="262.0" departLane="random" departSpeed="10" />
<vehicle id="N_S_7" type="standard_car" route="N_S" depart="301.0" departLane="random" departSpeed="10" />
<vehicle id="E_W_8" type="standard_car" route="E_W" depart="316.0" departLane="random" departSpeed="10" />
<vehicle id="N_S_9" type="standard_car" route="N_S" depart="324.0" departLane="random" departSpeed="10" />
<vehicle id="N_W_10" type="standard_car" route="N_W" depart="337.0" departLane="random" departSpeed="10" />
<vehicle id="S_E_11" type="standard_car" route="S_E" depart="449.0" departLane="random" departSpeed="10" />
<vehicle id="E_S_12" type="standard_car" route="E_S" depart="463.0" departLane="random" departSpeed="10" />
<vehicle id="W_E_13" type="standard_car" route="W_E" depart="464.0" departLane="random" departSpeed="10" />
<vehicle id="E_W_14" type="standard_car" route="E_W" depart="479.0" departLane="random" departSpeed="10" />
<vehicle id="W_N_15" type="standard_car" route="W_N" depart="538.0" departLane="random" departSpeed="10" />
<vehicle id="S_N_16" type="standard_car" route="S_N" depart="542.0" departLane="random" departSpeed="10" />
<vehicle id="E_S_17" type="standard_car" route="E_S" depart="552.0" departLane="random" departSpeed="10" />
<vehicle id="S_N_18" type="standard_car" route="S_N" depart="556.0" departLane="random" departSpeed="10" />
<vehicle id="S_N_19" type="standard_car" route="S_N" depart="557.0" departLane="random" departSpeed="10" />
<vehicle id="S_N_20" type="standard_car" route="S_N" depart="565.0" departLane="random" departSpeed="10" />
<vehicle id="E_W_21" type="standard_car" route="E_W" depart="595.0" departLane="random" departSpeed="10" />
<vehicle id="W_E_22" type="standard_car" route="W_E" depart="602.0" departLane="random" departSpeed="10" />
<vehicle id="W_E_23" type="standard_car" route="W_E" depart="603.0" departLane="random" departSpeed="10" />
<vehicle id="S_N_24" type="standard_car" route="S_N" depart="615.0" departLane="random" departSpeed="10" />
<vehicle id="S_W_25" type="standard_car" route="S_W" depart="625.0" departLane="random" departSpeed="10" />
<vehicle id="S_W_26" type="standard_car" route="S_W" depart="633.0" departLane="random" departSpeed="10" />
<vehicle id="E_S_27" type="standard_car" route="E_S" depart="684.0" departLane="random" departSpeed="10" />
<vehicle id="N_S_28" type="standard_car" route="N_S" depart="699.0" departLane="random" departSpeed="10" />
<vehicle id="N_S_29" type="standard_car" route="N_S" depart="704.0" departLane="random" departSpeed="10" />
<vehicle id="N_S_30" type="standard_car" route="N_S" depart="704.0" departLane="random" departSpeed="10" />
<vehicle id="W_N_31" type="standard_car" route="W_N" depart="715.0" departLane="random" departSpeed="10" />
<vehicle id="N_S_32" type="standard_car" route="N_S" depart="717.0" departLane="random" departSpeed="10" />
<vehicle id="E_N_33" type="standard_car" route="E_N" depart="753.0" departLane="random" departSpeed="10" />
<vehicle id="S_N_34" type="standard_car" route="S_N" depart="755.0" departLane="random" departSpeed="10" />
<vehicle id="W_N_35" type="standard_car" route="W_N" depart="768.0" departLane="random" departSpeed="10" />
<vehicle id="W_E_36" type="standard_car" route="W_E" depart="770.0" departLane="random" departSpeed="10" />
<vehicle id="W_E_37" type="standard_car" route="W_E" depart="771.0" departLane="random" departSpeed="10" />
<vehicle id="W_E_38" type="standard_car" route="W_E" depart="780.0" departLane="random" departSpeed="10" />
<vehicle id="N_S_39" type="standard_car" route="N_S" depart="788.0" departLane="random" departSpeed="10" />
<vehicle id="W_E_40" type="standard_car" route="W_E" depart="797.0" departLane="random" departSpeed="10" />
<vehicle id="N_S_41" type="standard_car" route="N_S" depart="804.0" departLane="random" departSpeed="10" />
<vehicle id="N_W_42" type="standard_car" route="N_W" depart="811.0" departLane="random" departSpeed="10" />
<vehicle id="E_S_43" type="standard_car" route="E_S" depart="816.0" departLane="random" departSpeed="10" />
<vehicle id="E_W_44" type="standard_car" route="E_W" depart="833.0" departLane="random" departSpeed="10" />
<vehicle id="W_E_45" type="standard_car" route="W_E" depart="842.0" departLane="random" departSpeed="10" />
<vehicle id="E_W_46" type="standard_car" route="E_W" depart="863.0" departLane="random" departSpeed="10" />
<vehicle id="S_W_47" type="standard_car" route="S_W" depart="889.0" departLane="random" departSpeed="10" />
<vehicle id="N_S_48" type="standard_car" route="N_S" depart="899.0" departLane="random" departSpeed="10" />
<vehicle id="E_W_49" type="standard_car" route="E_W" depart="915.0" departLane="random" departSpeed="10" />
<vehicle id="S_E_50" type="standard_car" route="S_E" depart="919.0" departLane="random" departSpeed="10" />
<vehicle id="E_W_51" type="standard_car" route="E_W" depart="957.0" departLane="random" departSpeed="10" />
<vehicle id="S_W_52" type="standard_car" route="S_W" depart="973.0" departLane="random" departSpeed="10" />
<vehicle id="W_E_53" type="standard_car" route="W_E" depart="981.0" departLane="random" departSpeed="10" />
<vehicle id="W_E_54" type="standard_car" route="W_E" depart="987.0" departLane="random" departSpeed="10" />
<vehicle id="E_W_55" type="standard_car" route="E_W" depart="988.0" departLane="random" departSpeed="10" />
<vehicle id="S_N_56" type="standard_car" route="S_N" depart="1011.0" departLane="random" departSpeed="10" />
<vehicle id="N_S_57" type="standard_car" route="N_S" depart="1012.0" departLane="random" departSpeed="10" />
<vehicle id="S_W_58" type="standard_car" route="S_W" depart="1021.0" departLane="random" departSpeed="10" />
<vehicle id="S_W_59" type="standard_car" route="S_W" depart="1033.0" departLane="random" departSpeed="10" />
<vehicle id="S_W_60" type="standard_car" route="S_W" depart="1035.0" departLane="random" departSpeed="10" />
<vehicle id="E_W_61" type="standard_car" route="E_W" depart="1042.0" departLane="random" departSpeed="10" />
<vehicle id="W_S_62" type="standard_car" route="W_S" depart="1044.0" departLane="random" departSpeed="10" />
<vehicle id="N_S_63" type="standard_car" route="N_S" depart="1048.0" departLane="random" departSpeed="10" />
<vehicle id="E_W_64" type="standard_car" route="E_W" depart="1050.0" departLane="random" departSpeed="10" />
<vehicle id="S_W_65" type="standard_car" route="S_W" depart="1051.0" departLane="random" departSpeed="10" />
<vehicle id="N_W_66" type="standard_car" route="N_W" depart="1052.0" departLane="random" departSpeed="10" />
<vehicle id="W_E_67" type="standard_car" route="W_E" depart="1068.0" departLane="random" departSpeed="10" />
<vehicle id="W_E_68" type="standard_car" route="W_E" depart="1070.0" departLane="random" departSpeed="10" />
<vehicle id="E_W_69" type="standard_car" route="E_W" depart="1071.0" departLane="random" departSpeed="10" />
<vehicle id="S_N_70" type="standard_car" route="S_N" depart="1091.0" departLane="random" departSpeed="10" />
<vehicle id="N_W_71" type="standard_car" route="N_W" depart="1094.0" departLane="random" departSpeed="10" />
<vehicle id="N_S_72" type="standard_car" route="N_S" depart="1098.0" departLane="random" departSpeed="10" />
<vehicle id="S_N_73" type="standard_car" route="S_N" depart="1100.0" departLane="random" departSpeed="10" />
<vehicle id="N_S_74" type="standard_car" route="N_S" depart="1104.0" departLane="random" departSpeed="10" />
<vehicle id="W_E_75" type="standard_car" route="W_E" depart="1108.0" departLane="random" departSpeed="10" />
<vehicle id="E_W_76" type="standard_car" route="E_W" depart="1109.0" departLane="random" departSpeed="10" />
<vehicle id="S_N_77" type="standard_car" route="S_N" depart="1110.0" departLane="random" departSpeed="10" />
<vehicle id="E_W_78" type="standard_car" route="E_W" depart="1110.0" departLane="random" departSpeed="10" />
<vehicle id="W_E_79" type="standard_car" route="W_E" depart="1112.0" departLane="random" departSpeed="10" />
<vehicle id="E_W_80" type="standard_car" route="E_W" depart="1118.0" departLane="random" departSpeed="10" />
<vehicle id="N_S_81" type="standard_car" route="N_S" depart="1126.0" departLane="random" departSpeed="10" />
<vehicle id="W_E_82" type="standard_car" route="W_E" depart="1133.0" departLane="random" departSpeed="10" />
<vehicle id="N_S_83" type="standard_car" route="N_S" depart="1139.0" departLane="random" departSpeed="10" />
<vehicle id="S_N_84" type="standard_car" route="S_N" depart="1142.0" departLane="random" departSpeed="10" />
<vehicle id="N_S_85" type="standard_car" route="N_S" depart="1143.0" departLane="random" departSpeed="10" />
<vehicle id="S_N_86" type="standard_car" route="S_N" depart="1146.0" departLane="random" departSpeed="10" />
<vehicle id="S_E_87" type="standard_car" route="S_E" depart="1156.0" departLane="random" departSpeed="10" />
<vehicle id="E_N_88" type="standard_car" route="E_N" depart="1166.0" departLane="random" departSpeed="10" />
<vehicle id="S_N_89" type="standard_car" route="S_N" depart="1170.0" departLane="random" departSpeed="10" />
<vehicle id="W_N_90" type="standard_car" route="W_N" depart="1181.0" departLane="random" departSpeed="10" />
<vehicle id="S_N_91" type="standard_car" route="S_N" depart="1186.0" departLane="random" departSpeed="10" />
<vehicle id="W_E_92" type="standard_car" route="W_E" depart="1186.0" departLane="random" departSpeed="10" />
<vehicle id="W_E_93" type="standard_car" route="W_E" depart="1191.0" departLane="random" departSpeed="10" />
<vehicle id="W_E_94" type="standard_car" route="W_E" depart="1193.0" departLane="random" departSpeed="10" />
<vehicle id="W_S_95" type="standard_car" route="W_S" depart="1203.0" departLane="random" departSpeed="10" />
<vehicle id="W_E_96" type="standard_car" route="W_E" depart="1208.0" departLane="random" departSpeed="10" />
<vehicle id="S_E_97" type="standard_car" route="S_E" depart="1212.0" departLane="random" departSpeed="10" />
<vehicle id="W_E_98" type="standard_car" route="W_E" depart="1220.0" departLane="random" departSpeed="10" />
<vehicle id="N_W_99" type="standard_car" route="N_W" depart="1221.0" departLane="random" departSpeed="10" />
<vehicle id="W_E_100" type="standard_car" route="W_E" depart="1224.0" departLane="random" departSpeed="10" />
<vehicle id="S_N_101" type="standard_car" route="S_N" depart="1230.0" departLane="random" departSpeed="10" />
<vehicle id="E_W_102" type="standard_car" route="E_W" depart="1230.0" departLane="random" departSpeed="10" />
<vehicle id="S_N_103" type="standard_car" route="S_N" depart="1230.0" departLane="random" departSpeed="10" />
<vehicle id="S_E_104" type="standard_car" route="S_E" depart="1231.0" departLane="random" departSpeed="10" />
<vehicle id="N_S_105" type="standard_car" route="N_S" depart="1233.0" departLane="random" departSpeed="10" />
<vehicle id="W_E_106" type="standard_car" route="W_E" depart="1265.0" departLane="random" departSpeed="10" />
<vehicle id="W_E_107" type="standard_car" route="W_E" depart="1270.0" departLane="random" departSpeed="10" />
<vehicle id="S_N_108" type="standard_car" route="S_N" depart="1272.0" departLane="random" departSpeed="10" />
<vehicle id="N_S_109" type="standard_car" route="N_S" depart="1272.0" departLane="random" departSpeed="10" />
<vehicle id="W_E_110" type="standard_car" route="W_E" depart="1274.0" departLane="random" departSpeed="10" />
<vehicle id="S_N_111" type="standard_car" route="S_N" depart="1274.0" departLane="random" departSpeed="10" />
<vehicle id="N_S_112" type="standard_car" route="N_S" depart="1276.0" departLane="random" departSpeed="10" />
<vehicle id="S_N_113" type="standard_car" route="S_N" depart="1276.0" departLane="random" departSpeed="10" />
<vehicle id="S_N_114" type="standard_car" route="S_N" depart="1281.0" departLane="random" departSpeed="10" />
<vehicle id="N_W_115" type="standard_car" route="N_W" depart="1284.0" departLane="random" departSpeed="10" />
<vehicle id="N_S_116" type="standard_car" route="N_S" depart="1288.0" departLane="random" departSpeed="10" />
<vehicle id="S_N_117" type="standard_car" route="S_N" depart="1291.0" departLane="random" departSpeed="10" />
<vehicle id="N_S_118" type="standard_car" route="N_S" depart="1296.0" departLane="random" departSpeed="10" />
<vehicle id="S_N_119" type="standard_car" route="S_N" depart="1304.0" departLane="random" departSpeed="10" />
<vehicle id="S_E_120" type="standard_car" route="S_E" depart="1307.0" departLane="random" departSpeed="10" />
<vehicle id="E_W_121" type="standard_car" route="E_W" depart="1311.0" departLane="random" departSpeed="10" />
<vehicle id="E_W_122" type="standard_car" route="E_W" depart="1313.0" departLane="random" departSpeed="10" />
<vehicle id="W_E_123" type="standard_car" route="W_E" depart="1319.0" departLane="random" departSpeed="10" />
<vehicle id="E_W_124" type="standard_car" route="E_W" depart="1324.0" departLane="random" departSpeed="10" />
<vehicle id="N_S_125" type="standard_car" route="N_S" depart="1324.0" departLane="random" departSpeed="10" />
<vehicle id="S_N_126" type="standard_car" route="S_N" depart="1329.0" departLane="random" departSpeed="10" />
<vehicle id="E_W_127" type="standard_car" route="E_W" depart="1331.0" departLane="random" departSpeed="10" />
<vehicle id="E_W_128" type="standard_car" route="E_W" depart="1333.0" departLane="random" departSpeed="10" />
<vehicle id="E_W_129" type="standard_car" route="E_W" depart="1334.0" departLane="random" departSpeed="10" />
<vehicle id="N_S_130" type="standard_car" route="N_S" depart="1334.0" departLane="random" departSpeed="10" />
<vehicle id="N_E_131" type="standard_car" route="N_E" depart="1336.0" departLane="random" departSpeed="10" />
<vehicle id="E_W_132" type="standard_car" route="E_W" depart="1338.0" departLane="random" departSpeed="10" />
<vehicle id="N_S_133" type="standard_car" route="N_S" depart="1349.0" departLane="random" departSpeed="10" />
<vehicle id="W_E_134" type="standard_car" route="W_E" depart="1353.0" departLane="random" departSpeed="10" />
<vehicle id="N_S_135" type="standard_car" route="N_S" depart="1355.0" departLane="random" departSpeed="10" />
<vehicle id="W_E_136" type="standard_car" route="W_E" depart="1359.0" departLane="random" departSpeed="10" />
<vehicle id="E_W_137" type="standard_car" route="E_W" depart="1361.0" departLane="random" departSpeed="10" />
<vehicle id="N_S_138" type="standard_car" route="N_S" depart="1362.0" departLane="random" departSpeed="10" />
<vehicle id="E_W_139" type="standard_car" route="E_W" depart="1365.0" departLane="random" departSpeed="10" />
<vehicle id="E_W_140" type="standard_car" route="E_W" depart="1369.0" departLane="random" departSpeed="10" />
<vehicle id="N_E_141" type="standard_car" route="N_E" depart="1369.0" departLane="random" departSpeed="10" />
<vehicle id="N_S_142" type="standard_car" route="N_S" depart="1384.0" departLane="random" departSpeed="10" />
<vehicle id="S_N_143" type="standard_car" route="S_N" depart="1387.0" departLane="random" departSpeed="10" />
<vehicle id="W_E_144" type="standard_car" route="W_E" depart="1387.0" departLane="random" departSpeed="10" />
<vehicle id="S_E_145" type="standard_car" route="S_E" depart="1393.0" departLane="random" departSpeed="10" />
<vehicle id="W_E_146" type="standard_car" route="W_E" depart="1398.0" departLane="random" departSpeed="10" />
<vehicle id="S_W_147" type="standard_car" route="S_W" depart="1398.0" departLane="random" departSpeed="10" />
<vehicle id="S_N_148" type="standard_car" route="S_N" depart="1399.0" departLane="random" departSpeed="10" />
<vehicle id="W_E_149" type="standard_car" route="W_E" depart="1405.0" departLane="random" departSpeed="10" />
<vehicle id="N_S_150" type="standard_car" route="N_S" depart="1414.0" departLane="random" departSpeed="10" />
<vehicle id="W_E_151" type="standard_car" route="W_E" depart="1416.0" departLane="random" departSpeed="10" />
<vehicle id="S_N_152" type="standard_car" route="S_N" depart="1416.0" departLane="random" departSpeed="10" />
<vehicle id="S_N_153" type="standard_car" route="S_N" depart="1418.0" departLane="random" departSpeed="10" />
<vehicle id="E_W_154" type="standard_car" route="E_W" depart="1419.0" departLane="random" departSpeed="10" />
<vehicle id="N_S_155" type="standard_car" route="N_S" depart="1423.0" departLane="random" departSpeed="10" />
<vehicle id="N_E_156" type="standard_car" route="N_E" depart="1426.0" departLane="random" departSpeed="10" />
<vehicle id="E_W_157" type="standard_car" route="E_W" depart="1431.0" departLane="random" departSpeed="10" />
<vehicle id="N_S_158" type="standard_car" route="N_S" depart="1433.0" departLane="random" departSpeed="10" />
<vehicle id="N_S_159" type="standard_car" route="N_S" depart="1437.0" departLane="random" departSpeed="10" />
<vehicle id="E_W_160" type="standard_car" route="E_W" depart="1438.0" departLane="random" departSpeed="10" />
<vehicle id="S_W_161" type="standard_car" route="S_W" depart="1445.0" departLane="random" departSpeed="10" />
<vehicle id="S_N_162" type="standard_car" route="S_N" depart="1446.0" departLane="random" departSpeed="10" />
<vehicle id="S_N_163" type="standard_car" route="S_N" depart="1447.0" departLane="random" departSpeed="10" />
<vehicle id="S_N_164" type="standard_car" route="S_N" depart="1460.0" departLane="random" departSpeed="10" />
<vehicle id="E_W_165" type="standard_car" route="E_W" depart="1460.0" departLane="random" departSpeed="10" />
<vehicle id="E_S_166" type="standard_car" route="E_S" depart="1461.0" departLane="random" departSpeed="10" />
<vehicle id="E_W_167" type="standard_car" route="E_W" depart="1462.0" departLane="random" departSpeed="10" />
<vehicle id="E_W_168" type="standard_car" route="E_W" depart="1466.0" departLane="random" departSpeed="10" />
<vehicle id="N_S_169" type="standard_car" route="N_S" depart="1466.0" departLane="random" departSpeed="10" />
<vehicle id="S_N_170" type="standard_car" route="S_N" depart="1468.0" departLane="random" departSpeed="10" />
<vehicle id="E_S_171" type="standard_car" route="E_S" depart="1468.0" departLane="random" departSpeed="10" />
<vehicle id="E_N_172" type="standard_car" route="E_N" depart="1472.0" departLane="random" departSpeed="10" />
<vehicle id="E_S_173" type="standard_car" route="E_S" depart="1479.0" departLane="random" departSpeed="10" />
<vehicle id="E_W_174" type="standard_car" route="E_W" depart="1480.0" departLane="random" departSpeed="10" />
<vehicle id="S_N_175" type="standard_car" route="S_N" depart="1484.0" departLane="random" departSpeed="10" />
<vehicle id="S_W_176" type="standard_car" route="S_W" depart="1484.0" departLane="random" departSpeed="10" />
<vehicle id="W_E_177" type="standard_car" route="W_E" depart="1485.0" departLane="random" departSpeed="10" />
<vehicle id="E_W_178" type="standard_car" route="E_W" depart="1489.0" departLane="random" departSpeed="10" />
<vehicle id="E_S_179" type="standard_car" route="E_S" depart="1494.0" departLane="random" departSpeed="10" />
<vehicle id="W_E_180" type="standard_car" route="W_E" depart="1496.0" departLane="random" departSpeed="10" />
<vehicle id="E_W_181" type="standard_car" route="E_W" depart="1496.0" departLane="random" departSpeed="10" />
<vehicle id="N_S_182" type="standard_car" route="N_S" depart="1501.0" departLane="random" departSpeed="10" />
<vehicle id="W_E_183" type="standard_car" route="W_E" depart="1502.0" departLane="random" departSpeed="10" />
<vehicle id="S_N_184" type="standard_car" route="S_N" depart="1507.0" departLane="random" departSpeed="10" />
<vehicle id="E_W_185" type="standard_car" route="E_W" depart="1508.0" departLane="random" departSpeed="10" />
<vehicle id="W_S_186" type="standard_car" route="W_S" depart="1510.0" departLane="random" departSpeed="10" />
<vehicle id="W_E_187" type="standard_car" route="W_E" depart="1511.0" departLane="random" departSpeed="10" />
<vehicle id="W_E_188" type="standard_car" route="W_E" depart="1512.0" departLane="random" departSpeed="10" />
<vehicle id="W_E_189" type="standard_car" route="W_E" depart="1515.0" departLane="random" departSpeed="10" />
<vehicle id="N_S_190" type="standard_car" route="N_S" depart="1515.0" departLane="random" departSpeed="10" />
<vehicle id="N_S_191" type="standard_car" route="N_S" depart="1529.0" departLane="random" departSpeed="10" />
<vehicle id="S_N_192" type="standard_car" route="S_N" depart="1531.0" departLane="random" departSpeed="10" />
<vehicle id="N_S_193" type="standard_car" route="N_S" depart="1532.0" departLane="random" departSpeed="10" />
<vehicle id="N_S_194" type="standard_car" route="N_S" depart="1536.0" departLane="random" departSpeed="10" />
<vehicle id="S_N_195" type="standard_car" route="S_N" depart="1539.0" departLane="random" departSpeed="10" />
<vehicle id="E_S_196" type="standard_car" route="E_S" depart="1545.0" departLane="random" departSpeed="10" />
<vehicle id="S_N_197" type="standard_car" route="S_N" depart="1547.0" departLane="random" departSpeed="10" />
<vehicle id="S_N_198" type="standard_car" route="S_N" depart="1553.0" departLane="random" departSpeed="10" />
<vehicle id="N_S_199" type="standard_car" route="N_S" depart="1558.0" departLane="random" departSpeed="10" />
<vehicle id="N_S_200" type="standard_car" route="N_S" depart="1560.0" departLane="random" departSpeed="10" />
<vehicle id="E_W_201" type="standard_car" route="E_W" depart="1560.0" departLane="random" departSpeed="10" />
<vehicle id="E_W_202" type="standard_car" route="E_W" depart="1562.0" departLane="random" departSpeed="10" />
<vehicle id="S_N_203" type="standard_car" route="S_N" depart="1564.0" departLane="random" departSpeed="10" />
<vehicle id="S_N_204" type="standard_car" route="S_N" depart="1567.0" departLane="random" departSpeed="10" />
<vehicle id="S_N_205" type="standard_car" route="S_N" depart="1573.0" departLane="random" departSpeed="10" />
<vehicle id="N_S_206" type="standard_car" route="N_S" depart="1573.0" departLane="random" departSpeed="10" />
<vehicle id="W_E_207" type="standard_car" route="W_E" depart="1576.0" departLane="random" departSpeed="10" />
<vehicle id="W_E_208" type="standard_car" route="W_E" depart="1577.0" departLane="random" departSpeed="10" />
<vehicle id="W_E_209" type="standard_car" route="W_E" depart="1578.0" departLane="random" departSpeed="10" />
<vehicle id="W_E_210" type="standard_car" route="W_E" depart="1578.0" departLane="random" departSpeed="10" />
<vehicle id="W_E_211" type="standard_car" route="W_E" depart="1581.0" departLane="random" departSpeed="10" />
<vehicle id="N_S_212" type="standard_car" route="N_S" depart="1582.0" departLane="random" departSpeed="10" />
<vehicle id="N_S_213" type="standard_car" route="N_S" depart="1583.0" departLane="random" departSpeed="10" />
<vehicle id="W_E_214" type="standard_car" route="W_E" depart="1583.0" departLane="random" departSpeed="10" />
<vehicle id="S_N_215" type="standard_car" route="S_N" depart="1592.0" departLane="random" departSpeed="10" />
<vehicle id="E_W_216" type="standard_car" route="E_W" depart="1593.0" departLane="random" departSpeed="10" />
<vehicle id="W_E_217" type="standard_car" route="W_E" depart="1593.0" departLane="random" departSpeed="10" />
<vehicle id="N_S_218" type="standard_car" route="N_S" depart="1595.0" departLane="random" departSpeed="10" />
<vehicle id="N_S_219" type="standard_car" route="N_S" depart="1597.0" departLane="random" departSpeed="10" />
<vehicle id="N_S_220" type="standard_car" route="N_S" depart="1598.0" departLane="random" departSpeed="10" />
<vehicle id="S_N_221" type="standard_car" route="S_N" depart="1599.0" departLane="random" departSpeed="10" />
<vehicle id="N_S_222" type="standard_car" route="N_S" depart="1600.0" departLane="random" departSpeed="10" />
<vehicle id="N_S_223" type="standard_car" route="N_S" depart="1600.0" departLane="random" departSpeed="10" />
<vehicle id="E_W_224" type="standard_car" route="E_W" depart="1600.0" departLane="random" departSpeed="10" />
<vehicle id="S_E_225" type="standard_car" route="S_E" depart="1604.0" departLane="random" departSpeed="10" />
<vehicle id="N_S_226" type="standard_car" route="N_S" depart="1607.0" departLane="random" departSpeed="10" />
<vehicle id="N_S_227" type="standard_car" route="N_S" depart="1611.0" departLane="random" departSpeed="10" />
<vehicle id="E_W_228" type="standard_car" route="E_W" depart="1615.0" departLane="random" departSpeed="10" />
<vehicle id="S_W_229" type="standard_car" route="S_W" depart="1616.0" departLane="random" departSpeed="10" />
<vehicle id="N_S_230" type="standard_car" route="N_S" depart="1616.0" departLane="random" departSpeed="10" />
<vehicle id="W_E_231" type="standard_car" route="W_E" depart="1617.0" departLane="random" departSpeed="10" />
<vehicle id="E_W_232" type="standard_car" route="E_W" depart="1617.0" departLane="random" departSpeed="10" />
<vehicle id="S_W_233" type="standard_car" route="S_W" depart="1620.0" departLane="random" departSpeed="10" />
<vehicle id="S_E_234" type="standard_car" route="S_E" depart="1620.0" departLane="random" departSpeed="10" />
<vehicle id="E_W_235" type="standard_car" route="E_W" depart="1621.0" departLane="random" departSpeed="10" />
<vehicle id="W_E_236" type="standard_car" route="W_E" depart="1621.0" departLane="random" departSpeed="10" />
<vehicle id="N_S_237" type="standard_car" route="N_S" depart="1623.0" departLane="random" departSpeed="10" />
<vehicle id="E_W_238" type="standard_car" route="E_W" depart="1623.0" departLane="random" departSpeed="10" />
<vehicle id="E_W_239" type="standard_car" route="E_W" depart="1625.0" departLane="random" departSpeed="10" />
<vehicle id="S_N_240" type="standard_car" route="S_N" depart="1627.0" departLane="random" departSpeed="10" />
<vehicle id="S_W_241" type="standard_car" route="S_W" depart="1629.0" departLane="random" departSpeed="10" />
<vehicle id="W_E_242" type="standard_car" route="W_E" depart="1634.0" departLane="random" departSpeed="10" />
<vehicle id="E_W_243" type="standard_car" route="E_W" depart="1634.0" departLane="random" departSpeed="10" />
<vehicle id="W_E_244" type="standard_car" route="W_E" depart="1634.0" departLane="random" departSpeed="10" />
<vehicle id="S_N_245" type="standard_car" route="S_N" depart="1636.0" departLane="random" departSpeed="10" />
<vehicle id="W_E_246" type="standard_car" route="W_E" depart="1636.0" departLane="random" departSpeed="10" />
<vehicle id="E_W_247" type="standard_car" route="E_W" depart="1638.0" departLane="random" departSpeed="10" />
<vehicle id="E_W_248" type="standard_car" route="E_W" depart="1640.0" departLane="random" departSpeed="10" />
<vehicle id="N_S_249" type="standard_car" route="N_S" depart="1640.0" departLane="random" departSpeed="10" />
<vehicle id="S_W_250" type="standard_car" route="S_W" depart="1642.0" departLane="random" departSpeed="10" />
<vehicle id="S_N_251" type="standard_car" route="S_N" depart="1644.0" departLane="random" departSpeed="10" />
<vehicle id="E_S_252" type="standard_car" route="E_S" depart="1646.0" departLane="random" departSpeed="10" />
<vehicle id="N_S_253" type="standard_car" route="N_S" depart="1656.0" departLane="random" departSpeed="10" />
<vehicle id="S_N_254" type="standard_car" route="S_N" depart="1656.0" departLane="random" departSpeed="10" />
<vehicle id="S_N_255" type="standard_car" route="S_N" depart="1659.0" departLane="random" departSpeed="10" />
<vehicle id="W_N_256" type="standard_car" route="W_N" depart="1661.0" departLane="random" departSpeed="10" />
<vehicle id="W_E_257" type="standard_car" route="W_E" depart="1664.0" departLane="random" departSpeed="10" />
<vehicle id="S_N_258" type="standard_car" route="S_N" depart="1664.0" departLane="random" departSpeed="10" />
<vehicle id="E_S_259" type="standard_car" route="E_S" depart="1665.0" departLane="random" departSpeed="10" />
<vehicle id="W_E_260" type="standard_car" route="W_E" depart="1670.0" departLane="random" departSpeed="10" />
<vehicle id="N_W_261" type="standard_car" route="N_W" depart="1671.0" departLane="random" departSpeed="10" />
<vehicle id="E_W_262" type="standard_car" route="E_W" depart="1671.0" departLane="random" departSpeed="10" />
<vehicle id="W_S_263" type="standard_car" route="W_S" depart="1671.0" departLane="random" departSpeed="10" />
<vehicle id="E_N_264" type="standard_car" route="E_N" depart="1672.0" departLane="random" departSpeed="10" />
<vehicle id="N_S_265" type="standard_car" route="N_S" depart="1673.0" departLane="random" departSpeed="10" />
<vehicle id="E_W_266" type="standard_car" route="E_W" depart="1683.0" departLane="random" departSpeed="10" />